Version 4
SHEET 1 1128 680
WIRE 240 -384 96 -384
WIRE 96 -320 96 -384
WIRE 240 -288 240 -384
WIRE 96 -208 96 -240
WIRE 96 -128 -32 -128
WIRE 96 -32 96 -128
WIRE 96 128 96 48
WIRE 480 128 96 128
WIRE 656 128 544 128
WIRE -32 144 -32 -128
WIRE 96 208 96 128
WIRE 656 224 656 208
WIRE -752 240 -1008 240
WIRE -208 256 -320 256
WIRE -32 256 -32 224
WIRE -32 256 -144 256
WIRE 32 256 -32 256
WIRE -1008 304 -1008 240
WIRE -752 304 -752 240
WIRE 96 352 96 304
WIRE 192 352 96 352
WIRE 304 352 256 352
WIRE -320 368 -320 256
WIRE -32 384 -32 256
WIRE 96 384 96 352
WIRE 304 448 304 352
WIRE -320 480 -320 448
FLAG -1008 384 0
FLAG -752 384 0
FLAG 656 224 0
FLAG 96 464 0
FLAG -32 464 0
FLAG 304 448 0
FLAG -320 480 0
FLAG 240 -288 0
SYMBOL voltage -1008 288 R0
WINDOW 123 24 124 Left 2
WINDOW 39 24 152 Left 2
SYMATTR Value2 AC 2
SYMATTR SpiceLine Rser=50
SYMATTR InstName V3
SYMATTR Value ""
SYMBOL res -768 288 R0
SYMATTR InstName R6
SYMATTR Value 50
SYMBOL npn 32 208 R0
SYMATTR InstName Q1
SYMATTR Value SST3904
SYMBOL res 80 -224 R0
SYMATTR InstName R1
SYMATTR Value 270
SYMBOL res -48 128 R0
SYMATTR InstName R2
SYMATTR Value 820
SYMBOL res -48 368 R0
SYMATTR InstName R3
SYMATTR Value 4.7k
SYMBOL res 80 368 R0
SYMATTR InstName R4
SYMATTR Value 100
SYMBOL voltage -320 352 R0
WINDOW 123 24 124 Left 2
WINDOW 39 24 152 Left 2
SYMATTR Value2 AC 2
SYMATTR SpiceLine Rser=50
SYMATTR InstName V1
SYMATTR Value ""
SYMBOL cap -144 240 R90
WINDOW 0 0 32 VBottom 2
WINDOW 3 32 32 VTop 2
SYMATTR InstName C1
SYMATTR Value 100n
SYMBOL cap 256 336 R90
WINDOW 0 0 32 VBottom 2
WINDOW 3 32 32 VTop 2
SYMATTR InstName C2
SYMATTR Value 1µ
SYMBOL res 640 112 R0
SYMATTR InstName R5
SYMATTR Value 50
SYMBOL voltage 96 -224 R180
WINDOW 0 24 96 Left 2
WINDOW 3 24 16 Left 2
WINDOW 123 0 0 Left 0
WINDOW 39 0 0 Left 0
SYMATTR InstName V2
SYMATTR Value 12
SYMBOL cap 544 112 R90
WINDOW 0 0 32 VBottom 2
WINDOW 3 32 32 VTop 2
SYMATTR InstName C4
SYMATTR Value 100n
SYMBOL ind 80 -48 R0
SYMATTR InstName L1
SYMATTR Value 15n
TEXT -1176 -96 Left 2 !.ac dec 1001 1000000 1000000000
